12
Benzene (D6h)
C          1.22115       -2.01116       -0.95763
C          1.39471       -1.93119       -2.33930
C          1.30604       -3.08287       -3.12116
C          1.04381       -4.31454       -2.52134
C          0.87025       -4.39451       -1.13966
C          0.95892       -3.24283       -0.35781
H          1.59902       -0.97158       -2.80663
H          1.44127       -3.02056       -4.19764
H          0.97473       -5.21183       -3.13049
H          0.66594       -5.35412       -0.67234
H          0.82370       -3.30514        0.71867
H          1.29023       -1.11387       -0.34847
