22
Biphenyl (D2, resymetrized)
C          1.82671        3.22628        1.51087
C          1.61515        1.94723        0.98897
C          0.68861        1.06941        1.57594
C         -0.02018        1.51637        2.70351
C          0.18877        2.79577        3.22561
C          1.11274        3.64988        2.62894
H          2.55109        3.88874        1.04445
H          2.19111        1.63123        0.12146
H         -0.75460        0.86828        3.17761
H         -0.37278        3.12397        4.09628
H          1.27624        4.64460        3.03485
C          0.46719       -0.27777        1.02620
C          0.11747       -0.46071       -0.32206
C         -0.09389       -1.73950       -0.84466
C          0.04306       -2.85825       -0.02679
C          0.39002       -2.69928        1.31246
C          0.59917       -1.41963        1.83387
H         -0.00535        0.40121       -0.97488
H         -0.36781       -1.85930       -1.88952
H         -0.12043       -3.85297       -0.43270
H          0.50112       -3.57014        1.95307
H          0.88045       -1.31746        2.88011

