14
Butane (optimized at the CCSD/aug-cc-pVDZ level)
C        0.0040996375            0.0000580409            1.5379519317
1       -0.5267438928            0.8844635521            1.9316619550
H       -0.5019813279           -0.8987464231            1.9316626660
H        1.0301098312            0.0143059168            1.9420759380
C        0.0043340708            0.0000606321            0.0022398852
H        0.5409341327            0.8932331377           -0.3687370905
H        0.5655287128           -0.8778675663           -0.3687363552
C       -1.4118227242           -0.0196051750           -0.5923711757
H       -1.9484227821           -0.9127778222           -0.2213946054
H       -1.9730174508            0.8583229354           -0.2213949403
C       -1.4115881539           -0.0196021724           -2.1280834968
H       -0.8807444069           -0.9040075058           -2.5217935027
H       -2.4375983457           -0.0338500647           -2.5322074022
H       -0.9055073007            0.8792025145           -2.5217938069


